https://github.com/OpenFAST/openfast/releases/tag/v4.1.0